[root]
type=Root
children=system
eventq_index=0
full_system=false
sim_quantum=0
time_sync_enable=false
time_sync_period=100000000000
time_sync_spin_threshold=100000000

[system]
type=System
children=clk_domain cpu cpu_clk_domain cpu_voltage_domain dvfs_handler l2 mem_ctrls membus redirect_paths0 redirect_paths1 redirect_paths2 switch_cpus tol2bus voltage_domain workload
auto_unlink_shared_backstore=false
cache_line_size=64
eventq_index=0
exit_on_work_items=false
init_param=0
m5ops_base=0
mem_mode=atomic
mem_ranges=0:17179869184
memories=system.mem_ctrls.dram
mmap_using_noreserve=false
multi_thread=false
num_work_ids=16
readfile=
redirect_paths=system.redirect_paths0 system.redirect_paths1 system.redirect_paths2
shadow_rom_ranges=
shared_backstore=
symbolfile=
thermal_components=
thermal_model=Null
work_begin_ckpt_count=0
work_begin_cpu_id_exit=-1
work_begin_exit_count=0
work_cpus_ckpt_count=0
work_end_ckpt_count=0
work_end_exit_count=0
work_item_id=-1
workload=system.workload
system_port=system.membus.cpu_side_ports[0]

[system.clk_domain]
type=SrcClockDomain
clock=1000
domain_id=-1
eventq_index=0
init_perf_level=0
voltage_domain=system.voltage_domain

[system.cpu]
type=BaseAtomicSimpleCPU
children=dcache decoder icache interrupts isa mmu power_state tracer workload
branchPred=Null
checker=Null
clk_domain=system.cpu_clk_domain
cpu_id=0
decoder=system.cpu.decoder
do_checkpoint_insts=true
do_statistics_insts=true
eventq_index=0
function_trace=false
function_trace_start=0
interrupts=system.cpu.interrupts
isa=system.cpu.isa
max_insts_all_threads=0
max_insts_any_thread=10000000000
mmu=system.cpu.mmu
numThreads=1
power_gating_on_idle=false
power_model=
power_state=system.cpu.power_state
progress_interval=10000000000
pwr_gating_latency=300
simpoint_start_insts=
simulate_data_stalls=false
simulate_inst_stalls=false
socket_id=0
switched_out=false
syscallRetryLatency=10000
system=system
tracer=system.cpu.tracer
width=1
workload=system.cpu.workload
dcache_port=system.cpu.dcache.cpu_side
icache_port=system.cpu.icache.cpu_side

[system.cpu.dcache]
type=Cache
children=power_state replacement_policy tags
TDR=1.5
addr_ranges=0:18446744073709551615
assoc=8
clk_domain=system.cpu_clk_domain
clusivity=mostly_incl
compressor=Null
cuckoo_on_conflict=false
data_latency=2
demand_mshr_reserve=1
eventq_index=0
is_read_only=false
max_miss_count=0
mem_size=0
move_contractions=true
mshrs=4
numSkews=1
p2_on_conflict=false
partitioning_manager=Null
power_model=
power_state=system.cpu.dcache.power_state
prefetcher=Null
randomizedIndexing=false
replace_expansions=true
replacement_policy=system.cpu.dcache.replacement_policy
response_latency=2
sequential_access=false
size=32768
skewedCache=false
system=system
tag_latency=2
tags=system.cpu.dcache.tags
tgts_per_mshr=20
vwayCache=false
warmup_percentage=0
write_allocator=Null
write_buffers=8
writeback_clean=false
cpu_side=system.cpu.dcache_port
mem_side=system.tol2bus.cpu_side_ports[1]

[system.cpu.dcache.power_state]
type=PowerState
clk_gate_bins=20
clk_gate_max=1000000000000
clk_gate_min=1000
default_state=UNDEFINED
eventq_index=0
leaders=
possible_states=

[system.cpu.dcache.replacement_policy]
type=LRURP
eventq_index=0

[system.cpu.dcache.tags]
type=BaseSetAssoc
children=indexing_policy power_state
assoc=8
block_size=64
clk_domain=system.cpu_clk_domain
entry_size=64
eventq_index=0
indexing_policy=system.cpu.dcache.tags.indexing_policy
mem_size=0
numSkews=1
partitioning_manager=Null
power_model=
power_state=system.cpu.dcache.tags.power_state
randomizedIndexing=false
replacement_policy=system.cpu.dcache.replacement_policy
sequential_access=false
size=32768
skewedCache=false
system=system
tag_latency=2
warmup_percentage=0

[system.cpu.dcache.tags.indexing_policy]
type=TaggedSetAssociative
assoc=8
entry_size=64
eventq_index=0
size=32768

[system.cpu.dcache.tags.power_state]
type=PowerState
clk_gate_bins=20
clk_gate_max=1000000000000
clk_gate_min=1000
default_state=UNDEFINED
eventq_index=0
leaders=
possible_states=

[system.cpu.decoder]
type=ArmDecoder
dvm_enabled=false
eventq_index=0
isa=system.cpu.isa

[system.cpu.icache]
type=Cache
children=power_state replacement_policy tags
TDR=1.5
addr_ranges=0:18446744073709551615
assoc=8
clk_domain=system.cpu_clk_domain
clusivity=mostly_incl
compressor=Null
cuckoo_on_conflict=false
data_latency=2
demand_mshr_reserve=1
eventq_index=0
is_read_only=true
max_miss_count=0
mem_size=0
move_contractions=true
mshrs=4
numSkews=1
p2_on_conflict=false
partitioning_manager=Null
power_model=
power_state=system.cpu.icache.power_state
prefetcher=Null
randomizedIndexing=false
replace_expansions=true
replacement_policy=system.cpu.icache.replacement_policy
response_latency=2
sequential_access=false
size=32768
skewedCache=false
system=system
tag_latency=2
tags=system.cpu.icache.tags
tgts_per_mshr=20
vwayCache=false
warmup_percentage=0
write_allocator=Null
write_buffers=8
writeback_clean=true
cpu_side=system.cpu.icache_port
mem_side=system.tol2bus.cpu_side_ports[0]

[system.cpu.icache.power_state]
type=PowerState
clk_gate_bins=20
clk_gate_max=1000000000000
clk_gate_min=1000
default_state=UNDEFINED
eventq_index=0
leaders=
possible_states=

[system.cpu.icache.replacement_policy]
type=LRURP
eventq_index=0

[system.cpu.icache.tags]
type=BaseSetAssoc
children=indexing_policy power_state
assoc=8
block_size=64
clk_domain=system.cpu_clk_domain
entry_size=64
eventq_index=0
indexing_policy=system.cpu.icache.tags.indexing_policy
mem_size=0
numSkews=1
partitioning_manager=Null
power_model=
power_state=system.cpu.icache.tags.power_state
randomizedIndexing=false
replacement_policy=system.cpu.icache.replacement_policy
sequential_access=false
size=32768
skewedCache=false
system=system
tag_latency=2
warmup_percentage=0

[system.cpu.icache.tags.indexing_policy]
type=TaggedSetAssociative
assoc=8
entry_size=64
eventq_index=0
size=32768

[system.cpu.icache.tags.power_state]
type=PowerState
clk_gate_bins=20
clk_gate_max=1000000000000
clk_gate_min=1000
default_state=UNDEFINED
eventq_index=0
leaders=
possible_states=

[system.cpu.interrupts]
type=ArmInterrupts
eventq_index=0

[system.cpu.isa]
type=ArmISA
children=release_se
decoderFlavor=Generic
eventq_index=0
fpsid=1090793632
id_aa64afr0_el1=0
id_aa64afr1_el1=0
id_aa64dfr0_el1=15790086
id_aa64dfr1_el1=0
id_aa64isar0_el1=268435456
id_aa64isar1_el1=16846864
id_aa64mmfr0_el1=15728642
id_aa64mmfr1_el1=1052704
id_aa64mmfr2_el1=65552
id_isar0=34607377
id_isar1=34677009
id_isar2=555950401
id_isar3=17899825
id_isar4=268501314
id_isar5=285212672
id_isar6=1
id_mmfr0=270536963
id_mmfr1=0
id_mmfr2=19070976
id_mmfr3=34611729
id_mmfr4=0
impdef_nop=false
midr=0
mpamidr_el1=3746995439730032896
pmu=Null
release_se=system.cpu.isa.release_se
sme_vl_se=1
sve_vl_se=1
system=system

[system.cpu.isa.release_se]
type=ArmRelease
eventq_index=0
extensions=FEAT_AES FEAT_PMULL FEAT_SHA1 FEAT_SHA256 FEAT_CRC32 FEAT_LSE FEAT_RDM FEAT_F32MM FEAT_F64MM FEAT_SVE FEAT_I8MM FEAT_DOTPROD FEAT_FCMA FEAT_JSCVT FEAT_PAuth FEAT_FLAGM FEAT_FLAGM2 FEAT_SME TME

[system.cpu.mmu]
type=ArmMMU
children=dtb dtb_walker itb itb_walker l2_shared stage2_dtb stage2_dtb_walker stage2_itb stage2_itb_walker
dtb=system.cpu.mmu.dtb
dtb_walker=system.cpu.mmu.dtb_walker
eventq_index=0
itb=system.cpu.mmu.itb
itb_walker=system.cpu.mmu.itb_walker
release_se=system.cpu.isa.release_se
stage2_dtb=system.cpu.mmu.stage2_dtb
stage2_dtb_walker=system.cpu.mmu.stage2_dtb_walker
stage2_itb=system.cpu.mmu.stage2_itb
stage2_itb_walker=system.cpu.mmu.stage2_itb_walker
sys=system

[system.cpu.mmu.dtb]
type=ArmTLB
children=indexing_policy replacement_policy
assoc=64
entry_type=data
eventq_index=0
indexing_policy=system.cpu.mmu.dtb.indexing_policy
is_stage2=false
next_level=system.cpu.mmu.l2_shared
partial_levels=
replacement_policy=system.cpu.mmu.dtb.replacement_policy
size=64
sys=system

[system.cpu.mmu.dtb.indexing_policy]
type=TLBSetAssociative
assoc=64
eventq_index=0
num_entries=64

[system.cpu.mmu.dtb.replacement_policy]
type=LRURP
eventq_index=0

[system.cpu.mmu.dtb_walker]
type=ArmTableWalker
children=power_state
clk_domain=system.cpu_clk_domain
eventq_index=0
is_stage2=false
num_squash_per_cycle=2
power_model=
power_state=system.cpu.mmu.dtb_walker.power_state
sys=system
port=system.tol2bus.cpu_side_ports[3]

[system.cpu.mmu.dtb_walker.power_state]
type=PowerState
clk_gate_bins=20
clk_gate_max=1000000000000
clk_gate_min=1000
default_state=UNDEFINED
eventq_index=0
leaders=
possible_states=

[system.cpu.mmu.itb]
type=ArmTLB
children=indexing_policy replacement_policy
assoc=64
entry_type=instruction
eventq_index=0
indexing_policy=system.cpu.mmu.itb.indexing_policy
is_stage2=false
next_level=system.cpu.mmu.l2_shared
partial_levels=
replacement_policy=system.cpu.mmu.itb.replacement_policy
size=64
sys=system

[system.cpu.mmu.itb.indexing_policy]
type=TLBSetAssociative
assoc=64
eventq_index=0
num_entries=64

[system.cpu.mmu.itb.replacement_policy]
type=LRURP
eventq_index=0

[system.cpu.mmu.itb_walker]
type=ArmTableWalker
children=power_state
clk_domain=system.cpu_clk_domain
eventq_index=0
is_stage2=false
num_squash_per_cycle=2
power_model=
power_state=system.cpu.mmu.itb_walker.power_state
sys=system
port=system.tol2bus.cpu_side_ports[2]

[system.cpu.mmu.itb_walker.power_state]
type=PowerState
clk_gate_bins=20
clk_gate_max=1000000000000
clk_gate_min=1000
default_state=UNDEFINED
eventq_index=0
leaders=
possible_states=

[system.cpu.mmu.l2_shared]
type=ArmTLB
children=indexing_policy replacement_policy
assoc=5
entry_type=unified
eventq_index=0
indexing_policy=system.cpu.mmu.l2_shared.indexing_policy
is_stage2=false
next_level=Null
partial_levels=L2
replacement_policy=system.cpu.mmu.l2_shared.replacement_policy
size=1280
sys=system

[system.cpu.mmu.l2_shared.indexing_policy]
type=TLBSetAssociative
assoc=5
eventq_index=0
num_entries=1280

[system.cpu.mmu.l2_shared.replacement_policy]
type=LRURP
eventq_index=0

[system.cpu.mmu.stage2_dtb]
type=ArmTLB
children=indexing_policy replacement_policy
assoc=32
entry_type=data
eventq_index=0
indexing_policy=system.cpu.mmu.stage2_dtb.indexing_policy
is_stage2=true
next_level=Null
partial_levels=
replacement_policy=system.cpu.mmu.stage2_dtb.replacement_policy
size=32
sys=system

[system.cpu.mmu.stage2_dtb.indexing_policy]
type=TLBSetAssociative
assoc=32
eventq_index=0
num_entries=32

[system.cpu.mmu.stage2_dtb.replacement_policy]
type=LRURP
eventq_index=0

[system.cpu.mmu.stage2_dtb_walker]
type=ArmTableWalker
children=power_state
clk_domain=system.cpu_clk_domain
eventq_index=0
is_stage2=true
num_squash_per_cycle=2
power_model=
power_state=system.cpu.mmu.stage2_dtb_walker.power_state
sys=system
port=system.tol2bus.cpu_side_ports[5]

[system.cpu.mmu.stage2_dtb_walker.power_state]
type=PowerState
clk_gate_bins=20
clk_gate_max=1000000000000
clk_gate_min=1000
default_state=UNDEFINED
eventq_index=0
leaders=
possible_states=

[system.cpu.mmu.stage2_itb]
type=ArmTLB
children=indexing_policy replacement_policy
assoc=32
entry_type=instruction
eventq_index=0
indexing_policy=system.cpu.mmu.stage2_itb.indexing_policy
is_stage2=true
next_level=Null
partial_levels=
replacement_policy=system.cpu.mmu.stage2_itb.replacement_policy
size=32
sys=system

[system.cpu.mmu.stage2_itb.indexing_policy]
type=TLBSetAssociative
assoc=32
eventq_index=0
num_entries=32

[system.cpu.mmu.stage2_itb.replacement_policy]
type=LRURP
eventq_index=0

[system.cpu.mmu.stage2_itb_walker]
type=ArmTableWalker
children=power_state
clk_domain=system.cpu_clk_domain
eventq_index=0
is_stage2=true
num_squash_per_cycle=2
power_model=
power_state=system.cpu.mmu.stage2_itb_walker.power_state
sys=system
port=system.tol2bus.cpu_side_ports[4]

[system.cpu.mmu.stage2_itb_walker.power_state]
type=PowerState
clk_gate_bins=20
clk_gate_max=1000000000000
clk_gate_min=1000
default_state=UNDEFINED
eventq_index=0
leaders=
possible_states=

[system.cpu.power_state]
type=PowerState
clk_gate_bins=20
clk_gate_max=1000000000000
clk_gate_min=1000
default_state=UNDEFINED
eventq_index=0
leaders=
possible_states=ON CLK_GATED OFF

[system.cpu.tracer]
type=ExeTracer
children=disassembler
disassembler=system.cpu.tracer.disassembler
eventq_index=0

[system.cpu.tracer.disassembler]
type=InstDisassembler
eventq_index=0

[system.cpu.workload]
type=Process
cmd=../../exe/lbm_s_base.spec-64 2000 reference.dat 0 0 200_200_260_ldc.of
cwd=/home/maintainer/cs773_CompArch-Perf-Security/Final_Project/Workspace/SPEC17_workloads/benchspec/CPU/619.lbm_s/run/run_base_refspeed_spec-64.0000
drivers=
egid=100
env=
errout=cerr
euid=100
eventq_index=0
executable=../../exe/lbm_s_base.spec-64
gid=1001
input=cin
kvmInSE=false
maxStackSize=67108864
output=cout
pgid=100
pid=100
ppid=0
release=5.1.0
simpoint=0
system=system
uid=100
useArchPT=false

[system.cpu_clk_domain]
type=SrcClockDomain
clock=500
domain_id=-1
eventq_index=0
init_perf_level=0
voltage_domain=system.cpu_voltage_domain

[system.cpu_voltage_domain]
type=VoltageDomain
eventq_index=0
voltage=1.0

[system.dvfs_handler]
type=DVFSHandler
domains=
enable=false
eventq_index=0
sys_clk_domain=system.clk_domain
transition_latency=100000000

[system.l2]
type=Cache
children=power_state replacement_policy tags
TDR=1.75
addr_ranges=0:18446744073709551615
assoc=16
clk_domain=system.cpu_clk_domain
clusivity=mostly_incl
compressor=Null
cuckoo_on_conflict=false
data_latency=20
demand_mshr_reserve=1
eventq_index=0
is_read_only=false
max_miss_count=0
mem_size=17179869185
move_contractions=true
mshrs=20
numSkews=2
p2_on_conflict=false
partitioning_manager=Null
power_model=
power_state=system.l2.power_state
prefetcher=Null
randomizedIndexing=true
replace_expansions=true
replacement_policy=system.l2.replacement_policy
response_latency=20
sequential_access=false
size=8388608
skewedCache=true
system=system
tag_latency=28
tags=system.l2.tags
tgts_per_mshr=12
vwayCache=true
warmup_percentage=0
write_allocator=Null
write_buffers=8
writeback_clean=false
cpu_side=system.tol2bus.mem_side_ports[0]
mem_side=system.membus.cpu_side_ports[1]

[system.l2.power_state]
type=PowerState
clk_gate_bins=20
clk_gate_max=1000000000000
clk_gate_min=1000
default_state=UNDEFINED
eventq_index=0
leaders=
possible_states=

[system.l2.replacement_policy]
type=RandomSkewfairRP
assoc=28
eventq_index=0
numSkews=2

[system.l2.tags]
type=VwayTags
children=indexing_policy power_state
TDR=1.75
assoc=28
block_size=64
cache_assoc=16
cache_size=8388608
clk_domain=system.cpu_clk_domain
cuckoo_on_conflict=false
data_repl_policy=random
entry_size=64
eventq_index=0
indexing_policy=system.l2.tags.indexing_policy
mem_size=17179869185
numSkews=2
p2_on_conflict=false
partitioning_manager=Null
power_model=
power_state=system.l2.tags.power_state
randomizedIndexing=true
replacement_policy=system.l2.replacement_policy
sequential_access=false
size=14680064
skewedCache=true
system=system
tag_latency=28
warmup_percentage=0

[system.l2.tags.indexing_policy]
type=SkewedAssocRand
assoc=28
entry_size=64
eventq_index=0
mem_size=14680064
numSkews=2
randomizedIndexing=true
skewedCache=true

[system.l2.tags.power_state]
type=PowerState
clk_gate_bins=20
clk_gate_max=1000000000000
clk_gate_min=1000
default_state=UNDEFINED
eventq_index=0
leaders=
possible_states=

[system.mem_ctrls]
type=MemCtrl
children=dram power_state
clk_domain=system.clk_domain
command_window=10000
disable_sanity_check=false
dram=system.mem_ctrls.dram
eventq_index=0
mem_sched_policy=frfcfs
min_reads_per_switch=16
min_writes_per_switch=16
power_model=
power_state=system.mem_ctrls.power_state
qos_policy=Null
qos_priorities=1
qos_priority_escalation=false
qos_q_policy=fifo
qos_requestors=               
qos_syncro_scheduler=false
qos_turnaround_policy=Null
static_backend_latency=10000
static_frontend_latency=10000
system=system
write_high_thresh_perc=85
write_low_thresh_perc=50
port=system.membus.mem_side_ports[0]

[system.mem_ctrls.dram]
type=DRAMInterface
children=power_state
IDD0=0.048
IDD02=0.003
IDD2N=0.034
IDD2N2=0.0
IDD2P0=0.0
IDD2P02=0.0
IDD2P1=0.025
IDD2P12=0.0
IDD3N=0.043000000000000003
IDD3N2=0.003
IDD3P0=0.0
IDD3P02=0.0
IDD3P1=0.037
IDD3P12=0.0
IDD4R=0.135
IDD4R2=0.0
IDD4W=0.123
IDD4W2=0.0
IDD5=0.25
IDD52=0.0
IDD6=0.03
IDD62=0.0
VDD=1.2
VDD2=2.5
activation_limit=4
addr_mapping=RoCoRaBaCh
bank_groups_per_rank=4
banks_per_rank=16
beats_per_clock=2
burst_length=8
clk_domain=system.clk_domain
collect_stats=true
conf_table_reported=true
data_clock_sync=false
device_bus_width=8
device_rowbuffer_size=1024
device_size=1073741824
devices_per_rank=8
dll=true
enable_dram_powerdown=false
eventq_index=0
image_file=
in_addr_map=true
kvm_map=true
max_accesses_per_row=16
null=false
page_policy=close
power_model=
power_state=system.mem_ctrls.dram.power_state
range=0:17179869184
ranks_per_channel=2
read_buffer_size=64
tAAD=833
tBURST=3332
tBURST_MAX=3332
tBURST_MIN=3332
tCCD_L=5000
tCCD_L_WR=5000
tCK=833
tCL=14160
tCS=1666
tCWL=14160
tPPD=0
tRAS=32000
tRCD=14160
tRCD_WR=14160
tREFI=7800000
tRFC=350000
tRP=14160
tRRD=3332
tRRD_L=4900
tRTP=7500
tRTW=1666
tWR=15000
tWTR=5000
tWTR_L=5000
tXAW=21000
tXP=6000
tXPDLL=0
tXS=340000
tXSDLL=0
two_cycle_activate=false
write_buffer_size=128
writeable=true

[system.mem_ctrls.dram.power_state]
type=PowerState
clk_gate_bins=20
clk_gate_max=1000000000000
clk_gate_min=1000
default_state=UNDEFINED
eventq_index=0
leaders=
possible_states=

[system.mem_ctrls.power_state]
type=PowerState
clk_gate_bins=20
clk_gate_max=1000000000000
clk_gate_min=1000
default_state=UNDEFINED
eventq_index=0
leaders=
possible_states=

[system.membus]
type=CoherentXBar
children=power_state snoop_filter
clk_domain=system.clk_domain
eventq_index=0
forward_latency=4
frontend_latency=3
header_latency=1
max_outstanding_snoops=512
max_routing_table_size=512
point_of_coherency=true
point_of_unification=true
power_model=
power_state=system.membus.power_state
response_latency=2
snoop_filter=system.membus.snoop_filter
snoop_response_latency=4
system=system
use_default_range=false
width=16
cpu_side_ports=system.system_port system.l2.mem_side
mem_side_ports=system.mem_ctrls.port

[system.membus.power_state]
type=PowerState
clk_gate_bins=20
clk_gate_max=1000000000000
clk_gate_min=1000
default_state=UNDEFINED
eventq_index=0
leaders=
possible_states=

[system.membus.snoop_filter]
type=SnoopFilter
eventq_index=0
lookup_latency=1
max_capacity=8388608
system=system

[system.redirect_paths0]
type=RedirectPath
app_path=/proc
eventq_index=0
host_paths=mirage_mirage_250419-17_50_25560/fs/proc

[system.redirect_paths1]
type=RedirectPath
app_path=/sys
eventq_index=0
host_paths=mirage_mirage_250419-17_50_25560/fs/sys

[system.redirect_paths2]
type=RedirectPath
app_path=/tmp
eventq_index=0
host_paths=mirage_mirage_250419-17_50_25560/fs/tmp

[system.switch_cpus]
type=BaseO3CPU
children=branchPred decoder fuPool mmu power_state tracer
LFSTSize=1024
LQEntries=32
LSQCheckLoads=true
LSQDepCheckShift=4
SQEntries=32
SSITSize=1024
activity=0
backComSize=5
branchPred=system.switch_cpus.branchPred
cacheLoadPorts=200
cacheStorePorts=200
checker=Null
clk_domain=system.cpu_clk_domain
commitToDecodeDelay=1
commitToFetchDelay=1
commitToIEWDelay=1
commitToRenameDelay=1
commitWidth=8
cpu_id=0
decodeToFetchDelay=1
decodeToRenameDelay=1
decodeWidth=8
decoder=system.switch_cpus.decoder
dispatchWidth=8
do_checkpoint_insts=true
do_statistics_insts=true
eventq_index=0
fetchBufferSize=64
fetchQueueSize=32
fetchToDecodeDelay=1
fetchTrapLatency=1
fetchWidth=8
forwardComSize=5
fuPool=system.switch_cpus.fuPool
function_trace=false
function_trace_start=0
iewToCommitDelay=1
iewToDecodeDelay=1
iewToFetchDelay=1
iewToRenameDelay=1
interrupts=
isa=system.cpu.isa
issueToExecuteDelay=1
issueWidth=8
max_insts_all_threads=0
max_insts_any_thread=10000000000
mmu=system.switch_cpus.mmu
needsTSO=false
numIQEntries=64
numPhysCCRegs=1280
numPhysFloatRegs=256
numPhysIntRegs=256
numPhysMatRegs=2
numPhysVecPredRegs=32
numPhysVecRegs=256
numROBEntries=192
numRobs=1
numThreads=1
power_gating_on_idle=false
power_model=
power_state=system.switch_cpus.power_state
progress_interval=10000000000
pwr_gating_latency=300
renameToDecodeDelay=1
renameToFetchDelay=1
renameToIEWDelay=2
renameToROBDelay=1
renameWidth=8
simpoint_start_insts=
smtCommitPolicy=RoundRobin
smtFetchPolicy=RoundRobin
smtIQPolicy=Partitioned
smtIQThreshold=100
smtLSQPolicy=Partitioned
smtLSQThreshold=100
smtNumFetchingThreads=1
smtROBPolicy=Partitioned
smtROBThreshold=100
socket_id=0
squashWidth=8
store_set_clear_period=250000
switched_out=true
syscallRetryLatency=10000
system=system
tracer=system.switch_cpus.tracer
trapLatency=13
wbWidth=8
workload=system.cpu.workload

[system.switch_cpus.branchPred]
type=TournamentBP
children=btb indirectBranchPred ras
btb=system.switch_cpus.branchPred.btb
choiceCtrBits=2
choicePredictorSize=8192
eventq_index=0
globalCtrBits=2
globalPredictorSize=8192
indirectBranchPred=system.switch_cpus.branchPred.indirectBranchPred
instShiftAmt=2
localCtrBits=2
localHistoryTableSize=2048
localPredictorSize=2048
numThreads=1
ras=system.switch_cpus.branchPred.ras
requiresBTBHit=false

[system.switch_cpus.branchPred.btb]
type=SimpleBTB
children=btbIndexingPolicy btbReplPolicy power_state
associativity=1
btbIndexingPolicy=system.switch_cpus.branchPred.btb.btbIndexingPolicy
btbReplPolicy=system.switch_cpus.branchPred.btb.btbReplPolicy
clk_domain=system.cpu_clk_domain
eventq_index=0
instShiftAmt=2
numEntries=4096
numThreads=1
power_model=
power_state=system.switch_cpus.branchPred.btb.power_state
tagBits=16

[system.switch_cpus.branchPred.btb.btbIndexingPolicy]
type=BTBSetAssociative
assoc=1
eventq_index=0
numThreads=1
num_entries=4096
set_shift=2
tag_bits=64

[system.switch_cpus.branchPred.btb.btbReplPolicy]
type=LRURP
eventq_index=0

[system.switch_cpus.branchPred.btb.power_state]
type=PowerState
clk_gate_bins=20
clk_gate_max=1000000000000
clk_gate_min=1000
default_state=UNDEFINED
eventq_index=0
leaders=
possible_states=

[system.switch_cpus.branchPred.indirectBranchPred]
type=SimpleIndirectPredictor
eventq_index=0
indirectGHRBits=13
indirectHashGHR=true
indirectHashTargets=true
indirectPathLength=3
indirectSets=256
indirectTagSize=16
indirectWays=2
instShiftAmt=2
numThreads=1
speculativePathLength=256

[system.switch_cpus.branchPred.ras]
type=ReturnAddrStack
eventq_index=0
numEntries=16
numThreads=1

[system.switch_cpus.decoder]
type=ArmDecoder
dvm_enabled=false
eventq_index=0
isa=system.cpu.isa

[system.switch_cpus.fuPool]
type=FUPool
children=FUList00 FUList01 FUList02 FUList03 FUList04 FUList05 FUList06 FUList07 FUList08 FUList09 FUList10
FUList=system.switch_cpus.fuPool.FUList00 system.switch_cpus.fuPool.FUList01 system.switch_cpus.fuPool.FUList02 system.switch_cpus.fuPool.FUList03 system.switch_cpus.fuPool.FUList04 system.switch_cpus.fuPool.FUList05 system.switch_cpus.fuPool.FUList06 system.switch_cpus.fuPool.FUList07 system.switch_cpus.fuPool.FUList08 system.switch_cpus.fuPool.FUList09 system.switch_cpus.fuPool.FUList10
eventq_index=0

[system.switch_cpus.fuPool.FUList00]
type=FUDesc
children=opList
count=6
eventq_index=0
opList=system.switch_cpus.fuPool.FUList00.opList

[system.switch_cpus.fuPool.FUList00.opList]
type=OpDesc
eventq_index=0
opClass=IntAlu
opLat=1
pipelined=true

[system.switch_cpus.fuPool.FUList01]
type=FUDesc
children=opList0 opList1
count=2
eventq_index=0
opList=system.switch_cpus.fuPool.FUList01.opList0 system.switch_cpus.fuPool.FUList01.opList1

[system.switch_cpus.fuPool.FUList01.opList0]
type=OpDesc
eventq_index=0
opClass=IntMult
opLat=3
pipelined=true

[system.switch_cpus.fuPool.FUList01.opList1]
type=OpDesc
eventq_index=0
opClass=IntDiv
opLat=20
pipelined=false

[system.switch_cpus.fuPool.FUList02]
type=FUDesc
children=opList0 opList1 opList2
count=4
eventq_index=0
opList=system.switch_cpus.fuPool.FUList02.opList0 system.switch_cpus.fuPool.FUList02.opList1 system.switch_cpus.fuPool.FUList02.opList2

[system.switch_cpus.fuPool.FUList02.opList0]
type=OpDesc
eventq_index=0
opClass=FloatAdd
opLat=2
pipelined=true

[system.switch_cpus.fuPool.FUList02.opList1]
type=OpDesc
eventq_index=0
opClass=FloatCmp
opLat=2
pipelined=true

[system.switch_cpus.fuPool.FUList02.opList2]
type=OpDesc
eventq_index=0
opClass=FloatCvt
opLat=2
pipelined=true

[system.switch_cpus.fuPool.FUList03]
type=FUDesc
children=opList0 opList1 opList2 opList3 opList4
count=2
eventq_index=0
opList=system.switch_cpus.fuPool.FUList03.opList0 system.switch_cpus.fuPool.FUList03.opList1 system.switch_cpus.fuPool.FUList03.opList2 system.switch_cpus.fuPool.FUList03.opList3 system.switch_cpus.fuPool.FUList03.opList4

[system.switch_cpus.fuPool.FUList03.opList0]
type=OpDesc
eventq_index=0
opClass=FloatMult
opLat=4
pipelined=true

[system.switch_cpus.fuPool.FUList03.opList1]
type=OpDesc
eventq_index=0
opClass=FloatMultAcc
opLat=5
pipelined=true

[system.switch_cpus.fuPool.FUList03.opList2]
type=OpDesc
eventq_index=0
opClass=FloatMisc
opLat=3
pipelined=true

[system.switch_cpus.fuPool.FUList03.opList3]
type=OpDesc
eventq_index=0
opClass=FloatDiv
opLat=12
pipelined=false

[system.switch_cpus.fuPool.FUList03.opList4]
type=OpDesc
eventq_index=0
opClass=FloatSqrt
opLat=24
pipelined=false

[system.switch_cpus.fuPool.FUList04]
type=FUDesc
children=opList0 opList1 opList2 opList3 opList4 opList5 opList6 opList7
count=0
eventq_index=0
opList=system.switch_cpus.fuPool.FUList04.opList0 system.switch_cpus.fuPool.FUList04.opList1 system.switch_cpus.fuPool.FUList04.opList2 system.switch_cpus.fuPool.FUList04.opList3 system.switch_cpus.fuPool.FUList04.opList4 system.switch_cpus.fuPool.FUList04.opList5 system.switch_cpus.fuPool.FUList04.opList6 system.switch_cpus.fuPool.FUList04.opList7

[system.switch_cpus.fuPool.FUList04.opList0]
type=OpDesc
eventq_index=0
opClass=MemRead
opLat=1
pipelined=true

[system.switch_cpus.fuPool.FUList04.opList1]
type=OpDesc
eventq_index=0
opClass=FloatMemRead
opLat=1
pipelined=true

[system.switch_cpus.fuPool.FUList04.opList2]
type=OpDesc
eventq_index=0
opClass=SimdUnitStrideLoad
opLat=1
pipelined=true

[system.switch_cpus.fuPool.FUList04.opList3]
type=OpDesc
eventq_index=0
opClass=SimdUnitStrideMaskLoad
opLat=1
pipelined=true

[system.switch_cpus.fuPool.FUList04.opList4]
type=OpDesc
eventq_index=0
opClass=SimdStridedLoad
opLat=1
pipelined=true

[system.switch_cpus.fuPool.FUList04.opList5]
type=OpDesc
eventq_index=0
opClass=SimdIndexedLoad
opLat=1
pipelined=true

[system.switch_cpus.fuPool.FUList04.opList6]
type=OpDesc
eventq_index=0
opClass=SimdUnitStrideFaultOnlyFirstLoad
opLat=1
pipelined=true

[system.switch_cpus.fuPool.FUList04.opList7]
type=OpDesc
eventq_index=0
opClass=SimdWholeRegisterLoad
opLat=1
pipelined=true

[system.switch_cpus.fuPool.FUList05]
type=FUDesc
children=opList00 opList01 opList02 opList03 opList04 opList05 opList06 opList07 opList08 opList09 opList10 opList11 opList12 opList13 opList14 opList15 opList16 opList17 opList18 opList19 opList20 opList21 opList22 opList23 opList24 opList25 opList26 opList27 opList28 opList29 opList30 opList31 opList32 opList33 opList34 opList35 opList36 opList37 opList38
count=4
eventq_index=0
opList=system.switch_cpus.fuPool.FUList05.opList00 system.switch_cpus.fuPool.FUList05.opList01 system.switch_cpus.fuPool.FUList05.opList02 system.switch_cpus.fuPool.FUList05.opList03 system.switch_cpus.fuPool.FUList05.opList04 system.switch_cpus.fuPool.FUList05.opList05 system.switch_cpus.fuPool.FUList05.opList06 system.switch_cpus.fuPool.FUList05.opList07 system.switch_cpus.fuPool.FUList05.opList08 system.switch_cpus.fuPool.FUList05.opList09 system.switch_cpus.fuPool.FUList05.opList10 system.switch_cpus.fuPool.FUList05.opList11 system.switch_cpus.fuPool.FUList05.opList12 system.switch_cpus.fuPool.FUList05.opList13 system.switch_cpus.fuPool.FUList05.opList14 system.switch_cpus.fuPool.FUList05.opList15 system.switch_cpus.fuPool.FUList05.opList16 system.switch_cpus.fuPool.FUList05.opList17 system.switch_cpus.fuPool.FUList05.opList18 system.switch_cpus.fuPool.FUList05.opList19 system.switch_cpus.fuPool.FUList05.opList20 system.switch_cpus.fuPool.FUList05.opList21 system.switch_cpus.fuPool.FUList05.opList22 system.switch_cpus.fuPool.FUList05.opList23 system.switch_cpus.fuPool.FUList05.opList24 system.switch_cpus.fuPool.FUList05.opList25 system.switch_cpus.fuPool.FUList05.opList26 system.switch_cpus.fuPool.FUList05.opList27 system.switch_cpus.fuPool.FUList05.opList28 system.switch_cpus.fuPool.FUList05.opList29 system.switch_cpus.fuPool.FUList05.opList30 system.switch_cpus.fuPool.FUList05.opList31 system.switch_cpus.fuPool.FUList05.opList32 system.switch_cpus.fuPool.FUList05.opList33 system.switch_cpus.fuPool.FUList05.opList34 system.switch_cpus.fuPool.FUList05.opList35 system.switch_cpus.fuPool.FUList05.opList36 system.switch_cpus.fuPool.FUList05.opList37 system.switch_cpus.fuPool.FUList05.opList38

[system.switch_cpus.fuPool.FUList05.opList00]
type=OpDesc
eventq_index=0
opClass=SimdAdd
opLat=1
pipelined=true

[system.switch_cpus.fuPool.FUList05.opList01]
type=OpDesc
eventq_index=0
opClass=SimdAddAcc
opLat=1
pipelined=true

[system.switch_cpus.fuPool.FUList05.opList02]
type=OpDesc
eventq_index=0
opClass=SimdAlu
opLat=1
pipelined=true

[system.switch_cpus.fuPool.FUList05.opList03]
type=OpDesc
eventq_index=0
opClass=SimdCmp
opLat=1
pipelined=true

[system.switch_cpus.fuPool.FUList05.opList04]
type=OpDesc
eventq_index=0
opClass=SimdCvt
opLat=1
pipelined=true

[system.switch_cpus.fuPool.FUList05.opList05]
type=OpDesc
eventq_index=0
opClass=SimdMisc
opLat=1
pipelined=true

[system.switch_cpus.fuPool.FUList05.opList06]
type=OpDesc
eventq_index=0
opClass=SimdMult
opLat=1
pipelined=true

[system.switch_cpus.fuPool.FUList05.opList07]
type=OpDesc
eventq_index=0
opClass=SimdMultAcc
opLat=1
pipelined=true

[system.switch_cpus.fuPool.FUList05.opList08]
type=OpDesc
eventq_index=0
opClass=SimdMatMultAcc
opLat=1
pipelined=true

[system.switch_cpus.fuPool.FUList05.opList09]
type=OpDesc
eventq_index=0
opClass=SimdShift
opLat=1
pipelined=true

[system.switch_cpus.fuPool.FUList05.opList10]
type=OpDesc
eventq_index=0
opClass=SimdShiftAcc
opLat=1
pipelined=true

[system.switch_cpus.fuPool.FUList05.opList11]
type=OpDesc
eventq_index=0